FeederExample/ArquivosDssMTBT/ABDD201/ABDD201Ramais.dss
new line.10214959 bus1=BBT837001.1.2.3.0,bus2=R10214959.1.2.3.0,Phases=3,Linecode=CABBTG06_4_3,Length=0.017,Units=km
new line.10215082 bus1=BBT814111.1.0,bus2=R10215082.1.0,Phases=1,Linecode=CABBTG01_4_1,Length=0.017,Units=km
new line.10215093 bus1=BBT128071969.1.0,bus2=R10215093.1.0,Phases=1,Linecode=CABBTG01_4_1,Length=0.017,Units=km
new line.10216290 bus1=BBT150754379.1.2.0,bus2=R10216290.1.2.0,Phases=2,Linecode=CABBT814_4_2,Length=0.017,Units=km
new line.10236571 bus1=BBT3624233.1.0,bus2=R10236571.1.0,Phases=1,Linecode=CABBTG02_4_1,Length=0.017,Units=km
new line.10236869 bus1=BBT815105.1.0,bus2=R10236869.1.0,Phases=1,Linecode=CABBTG02_4_1,Length=0.017,Units=km
new line.10237083 bus1=BBT128075259.1.0,bus2=R10237083.1.0,Phases=1,Linecode=CABBTG02_4_1,Length=0.017,Units=km
new line.10237686 bus1=BBT815728.1.2.0,bus2=R10237686.1.2.0,Phases=2,Linecode=CABBTG05_4_2,Length=0.017,Units=km
new line.10237689 bus1=BBT813579.1.2.0,bus2=R10237689.1.2.0,Phases=2,Linecode=CABBTG05_4_2,Length=0.017,Units=km
new line.10237692 bus1=BBT3279280.1.0,bus2=R10237692.1.0,Phases=1,Linecode=CABBTG02_4_1,Length=0.017,Units=km
new line.10237696 bus1=BBT128054007.1.2.0,bus2=R10237696.1.2.0,Phases=2,Linecode=CABBTG05_4_2,Length=0.017,Units=km
new line.10237698 bus1=BBT128053650.1.0,bus2=R10237698.1.0,Phases=1,Linecode=CABBTG02_4_1,Length=0.017,Units=km
new line.10237705 bus1=BBT814790.1.2.0,bus2=R10237705.1.2.0,Phases=2,Linecode=CABBTG04_4_2,Length=0.017,Units=km
new line.10237708 bus1=BBT128079606.1.2.0,bus2=R10237708.1.2.0,Phases=2,Linecode=CABBTG05_4_2,Length=0.017,Units=km
new line.10237713 bus1=BBT814461.1.2.0,bus2=R10237713.1.2.0,Phases=2,Linecode=CABBTG05_4_2,Length=0.017,Units=km
new line.10237716 bus1=BBT128071976.1.0,bus2=R10237716.1.0,Phases=1,Linecode=CABBTG02_4_1,Length=0.017,Units=km
new line.10237820 bus1=BBT948924.1.2.0,bus2=R10237820.1.2.0,Phases=2,Linecode=CABBTG05_4_2,Length=0.017,Units=km
new line.10220334 bus1=BBT128072277.1.0,bus2=R10220334.1.0,Phases=1,Linecode=CABBTG01_4_1,Length=0.017,Units=km
new line.10220350 bus1=BBT128071969.1.0,bus2=R10220350.1.0,Phases=1,Linecode=CABBTG01_4_1,Length=0.017,Units=km
new line.10220354 bus1=BBT816078.1.2.0,bus2=R10220354.1.2.0,Phases=2,Linecode=CABBTG05_4_2,Length=0.017,Units=km
new line.10220397 bus1=BBT813572.1.2.0,bus2=R10220397.1.2.0,Phases=2,Linecode=CABBTG05_4_2,Length=0.017,Units=km
new line.10221026 bus1=BBT824919.1.0,bus2=R10221026.1.0,Phases=1,Linecode=CABBTG02_4_1,Length=0.017,Units=km
new line.10221226 bus1=BBT812277.1.2.0,bus2=R10221226.1.2.0,Phases=2,Linecode=CABBTG05_4_2,Length=0.017,Units=km
new line.10221348 bus1=BBT815966.1.0,bus2=R10221348.1.0,Phases=1,Linecode=CABBTG01_4_1,Length=0.017,Units=km
new line.10221379 bus1=BBT813677.1.0,bus2=R10221379.1.0,Phases=1,Linecode=CABBTG02_4_1,Length=0.017,Units=km
new line.10221409 bus1=BBT128072270.1.0,bus2=R10221409.1.0,Phases=1,Linecode=CABBTG02_4_1,Length=0.017,Units=km
new line.10221412 bus1=BBT128072270.1.2.0,bus2=R10221412.1.2.0,Phases=2,Linecode=CABBTG05_4_2,Length=0.017,Units=km
new line.10221414 bus1=BBT128072109.1.2.0,bus2=R10221414.1.2.0,Phases=2,Linecode=CABBTG05_4_2,Length=0.017,Units=km
new line.10221831 bus1=BBT150862338.1.2.0,bus2=R10221831.1.2.0,Phases=2,Linecode=CABBT811_4_2,Length=0.017,Units=km
new line.10223509 bus1=BBT150866823.1.2.0,bus2=R10223509.1.2.0,Phases=2,Linecode=CABBTG05_4_2,Length=0.017,Units=km
new line.10250380 bus1=BBT151210901.1.2.0,bus2=R10250380.1.2.0,Phases=2,Linecode=CABBT811_4_2,Length=0.017,Units=km
new line.10336439 bus1=BBT150866824.1.0,bus2=R10336439.1.0,Phases=1,Linecode=CABBTG02_4_1,Length=0.017,Units=km
new line.10336567 bus1=BBT10639654.1.0,bus2=R10336567.1.0,Phases=1,Linecode=CABBTG02_4_1,Length=0.017,Units=km
new line.10336583 bus1=BBT825458.1.2.0,bus2=R10336583.1.2.0,Phases=2,Linecode=CABBTG05_4_2,Length=0.017,Units=km
new line.10254411 bus1=BBT813026.1.2.3.0,bus2=R10254411.1.2.3.0,Phases=3,Linecode=CABBTG06_4_3,Length=0.017,Units=km
new line.10254415 bus1=BBT813075.1.2.3.0,bus2=R10254415.1.2.3.0,Phases=3,Linecode=CABBTG06_4_3,Length=0.017,Units=km
new line.10254416 bus1=BBT812179.1.2.3.0,bus2=R10254416.1.2.3.0,Phases=3,Linecode=CABBTG06_4_3,Length=0.017,Units=km
new line.10254417 bus1=BBT813075.1.2.3.0,bus2=R10254417.1.2.3.0,Phases=3,Linecode=CABBTG06_4_3,Length=0.017,Units=km
new line.10280903 bus1=BBT70537114.1.0,bus2=R10280903.1.0,Phases=1,Linecode=CABBTG02_4_1,Length=0.017,Units=km
new line.10281240 bus1=BBT813362.1.0,bus2=R10281240.1.0,Phases=1,Linecode=CABBTG02_4_1,Length=0.017,Units=km
new line.10281322 bus1=BBT813565.1.0,bus2=R10281322.1.0,Phases=1,Linecode=CABBTG02_4_1,Length=0.017,Units=km
new line.10283514 bus1=BBT150867724.1.0,bus2=R10283514.1.0,Phases=1,Linecode=CABBTG01_4_1,Length=0.017,Units=km
new line.10336943 bus1=BBT814069.1.2.0,bus2=R10336943.1.2.0,Phases=2,Linecode=CABBTG05_4_2,Length=0.017,Units=km
new line.10336948 bus1=BBT812578.1.0,bus2=R10336948.1.0,Phases=1,Linecode=CABBTG02_4_1,Length=0.017,Units=km
new line.10336949 bus1=BBT812865.1.0,bus2=R10336949.1.0,Phases=1,Linecode=CABBTG02_4_1,Length=0.017,Units=km
new line.10336956 bus1=BBT813586.1.0,bus2=R10336956.1.0,Phases=1,Linecode=CABBTG02_4_1,Length=0.017,Units=km
new line.10336961 bus1=BBT822070.1.0,bus2=R10336961.1.0,Phases=1,Linecode=CABBTG02_4_1,Length=0.017,Units=km
new line.10338942 bus1=BBT128062666.1.0,bus2=R10338942.1.0,Phases=1,Linecode=CABBTG02_4_1,Length=0.017,Units=km
new line.10338943 bus1=BBT128062666.1.0,bus2=R10338943.1.0,Phases=1,Linecode=CABBTG02_4_1,Length=0.017,Units=km
new line.10339043 bus1=BBT150867823.1.0,bus2=R10339043.1.0,Phases=1,Linecode=CABBTG02_4_1,Length=0.017,Units=km
new line.10339049 bus1=BBT150867823.1.0,bus2=R10339049.1.0,Phases=1,Linecode=CABBTG02_4_1,Length=0.017,Units=km
new line.10219270 bus1=BBT813579.1.2.0,bus2=R10219270.1.2.0,Phases=2,Linecode=CABBTG04_4_2,Length=0.017,Units=km
new line.10260845 bus1=BBT151265136.1.2.0,bus2=R10260845.1.2.0,Phases=2,Linecode=CABBT811_4_2,Length=0.023,Units=km
new line.10261662 bus1=BBT128074979.1.0,bus2=R10261662.1.0,Phases=1,Linecode=CABBTG02_4_1,Length=0.017,Units=km
new line.10261763 bus1=BBT814139.1.0,bus2=R10261763.1.0,Phases=1,Linecode=CABBTG01_4_1,Length=0.017,Units=km
new line.10262180 bus1=BBT2996438.1.2.0,bus2=R10262180.1.2.0,Phases=2,Linecode=CABBTG05_4_2,Length=0.017,Units=km
new line.10262205 bus1=BBT70537114.1.2.0,bus2=R10262205.1.2.0,Phases=2,Linecode=CABBTG05_4_2,Length=0.017,Units=km
new line.10349716 bus1=BBT152801456.1.2.0,bus2=R10349716.1.2.0,Phases=2,Linecode=CABBTG05_4_2,Length=0.017,Units=km
new line.10349717 bus1=BBT152801440.1.2.0,bus2=R10349717.1.2.0,Phases=2,Linecode=CABBTG05_4_2,Length=0.017,Units=km
new line.10349719 bus1=BBT152801412.1.2.0,bus2=R10349719.1.2.0,Phases=2,Linecode=CABBTG05_4_2,Length=0.017,Units=km
new line.10349722 bus1=BBT152801349.1.2.0,bus2=R10349722.1.2.0,Phases=2,Linecode=CABBTG05_4_2,Length=0.017,Units=km
new line.10349723 bus1=BBT152801440.1.2.0,bus2=R10349723.1.2.0,Phases=2,Linecode=CABBTG05_4_2,Length=0.017,Units=km
new line.10349724 bus1=BBT152801400.1.2.0,bus2=R10349724.1.2.0,Phases=2,Linecode=CABBTG05_4_2,Length=0.017,Units=km
new line.10349725 bus1=BBT152801399.1.2.0,bus2=R10349725.1.2.0,Phases=2,Linecode=CABBTG05_4_2,Length=0.017,Units=km
new line.10376938 bus1=BBT153190368.1.2.0,bus2=R10376938.1.2.0,Phases=2,Linecode=CABBTG05_4_2,Length=0.017,Units=km
new line.10378491 bus1=BBT10639647.1.2.0,bus2=R10378491.1.2.0,Phases=2,Linecode=CABBTG05_4_2,Length=0.017,Units=km
new line.10378748 bus1=BBT128053279.1.0,bus2=R10378748.1.0,Phases=1,Linecode=CABBTG02_4_1,Length=0.017,Units=km
new line.10411539 bus1=BBT812970.1.0,bus2=R10411539.1.0,Phases=1,Linecode=CABBTG01_4_1,Length=0.017,Units=km
new line.10267724 bus1=BBT837568.1.0,bus2=R10267724.1.0,Phases=1,Linecode=CABBTG02_4_1,Length=0.017,Units=km
new line.10267729 bus1=BBT837344.1.2.0,bus2=R10267729.1.2.0,Phases=2,Linecode=CABBTG05_4_2,Length=0.017,Units=km
new line.10267742 bus1=BBT824611.1.2.0,bus2=R10267742.1.2.0,Phases=2,Linecode=CABBTG05_4_2,Length=0.017,Units=km
new line.10359624 bus1=BBT150867084.1.0,bus2=R10359624.1.0,Phases=1,Linecode=CABBTG02_4_1,Length=0.017,Units=km
new line.10386777 bus1=BBT35324153.1.0,bus2=R10386777.1.0,Phases=1,Linecode=CABBTG01_4_1,Length=0.017,Units=km
new line.10386974 bus1=BBT153334258.1.2.0,bus2=R10386974.1.2.0,Phases=2,Linecode=CABBTG05_4_2,Length=0.017,Units=km
new line.10402576 bus1=BBT128074979.1.0,bus2=R10402576.1.0,Phases=1,Linecode=CABBTG02_4_1,Length=0.017,Units=km
new line.10402631 bus1=BBT5092833.1.0,bus2=R10402631.1.0,Phases=1,Linecode=CABBTG02_4_1,Length=0.017,Units=km
new line.10402633 bus1=BBT150871374.1.0,bus2=R10402633.1.0,Phases=1,Linecode=CABBTG02_4_1,Length=0.017,Units=km
new line.10402649 bus1=BBT128054469.1.0,bus2=R10402649.1.0,Phases=1,Linecode=CABBTG02_4_1,Length=0.017,Units=km
new line.10402689 bus1=BBT816001.1.0,bus2=R10402689.1.0,Phases=1,Linecode=CABBTG02_4_1,Length=0.017,Units=km
new line.10402699 bus1=BBT128053279.1.0,bus2=R10402699.1.0,Phases=1,Linecode=CABBTG02_4_1,Length=0.017,Units=km
new line.10402704 bus1=BBT128053279.1.0,bus2=R10402704.1.0,Phases=1,Linecode=CABBTG02_4_1,Length=0.017,Units=km
new line.10402712 bus1=BBT128075448.1.0,bus2=R10402712.1.0,Phases=1,Linecode=CABBTG02_4_1,Length=0.017,Units=km
new line.10402746 bus1=BBT150867318.1.0,bus2=R10402746.1.0,Phases=1,Linecode=CABBTG02_4_1,Length=0.017,Units=km
new line.10402816 bus1=BBT3624233.1.0,bus2=R10402816.1.0,Phases=1,Linecode=CABBTG02_4_1,Length=0.017,Units=km
new line.10403204 bus1=BBT114407003.1.0,bus2=R10403204.1.0,Phases=1,Linecode=CABBTG02_4_1,Length=0.017,Units=km
new line.10293172 bus1=BBT824961.1.2.0,bus2=R10293172.1.2.0,Phases=2,Linecode=CABBTG05_4_2,Length=0.017,Units=km
new line.10293176 bus1=BBT5148259.1.2.0,bus2=R10293176.1.2.0,Phases=2,Linecode=CABBTG05_4_2,Length=0.017,Units=km
new line.10293268 bus1=BBT814048.1.0,bus2=R10293268.1.0,Phases=1,Linecode=CABBTG01_4_1,Length=0.017,Units=km
new line.10293272 bus1=BBT814923.1.2.0,bus2=R10293272.1.2.0,Phases=2,Linecode=CABBTG05_4_2,Length=0.017,Units=km
new line.10347457 bus1=BBT152765902.1.2.0,bus2=R10347457.1.2.0,Phases=2,Linecode=CABBTG05_4_2,Length=0.017,Units=km
new line.10373852 bus1=BBT815462.1.0,bus2=R10373852.1.0,Phases=1,Linecode=CABBTG02_4_1,Length=0.017,Units=km
new line.10374032 bus1=BBT3856843.1.0,bus2=R10374032.1.0,Phases=1,Linecode=CABBTG02_4_1,Length=0.017,Units=km
new line.10374088 bus1=BBT825024.1.2.0,bus2=R10374088.1.2.0,Phases=2,Linecode=CABBTG05_4_2,Length=0.017,Units=km
new line.10405882 bus1=BBT150866626.1.0,bus2=R10405882.1.0,Phases=1,Linecode=CABBTG02_4_1,Length=0.017,Units=km
new line.10407268 bus1=BBT813530.1.2.0,bus2=R10407268.1.2.0,Phases=2,Linecode=CABBTG05_4_2,Length=0.017,Units=km
new line.10407270 bus1=BBT5092847.1.2.0,bus2=R10407270.1.2.0,Phases=2,Linecode=CABBTG05_4_2,Length=0.017,Units=km
new line.10407278 bus1=BBT150867823.1.0,bus2=R10407278.1.0,Phases=1,Linecode=CABBTG02_4_1,Length=0.017,Units=km
new line.10407433 bus1=BBT23838511.1.2.0,bus2=R10407433.1.2.0,Phases=2,Linecode=CABBTG05_4_2,Length=0.017,Units=km
new line.10407442 bus1=BBT814258.1.0,bus2=R10407442.1.0,Phases=1,Linecode=CABBTG02_4_1,Length=0.017,Units=km
new line.10407457 bus1=BBT128079606.1.0,bus2=R10407457.1.0,Phases=1,Linecode=CABBTG02_4_1,Length=0.017,Units=km
new line.10407570 bus1=BBT813572.1.2.3.0,bus2=R10407570.1.2.3.0,Phases=3,Linecode=CABBTG06_4_3,Length=0.017,Units=km
new line.10407571 bus1=BBT813915.1.2.0,bus2=R10407571.1.2.0,Phases=2,Linecode=CABBTG05_4_2,Length=0.017,Units=km
new line.10262899 bus1=BBT837113.1.0,bus2=R10262899.1.0,Phases=1,Linecode=CABBTG02_4_1,Length=0.017,Units=km
new line.10262943 bus1=BBT150867724.1.0,bus2=R10262943.1.0,Phases=1,Linecode=CABBTG02_4_1,Length=0.017,Units=km
new line.10263043 bus1=BBT823246.1.0,bus2=R10263043.1.0,Phases=1,Linecode=CABBTG02_4_1,Length=0.017,Units=km
new line.10263051 bus1=BBT128054609.1.0,bus2=R10263051.1.0,Phases=1,Linecode=CABBTG02_4_1,Length=0.017,Units=km
new line.10265528 bus1=BBT150867034.1.0,bus2=R10265528.1.0,Phases=1,Linecode=CABBTG02_4_1,Length=0.017,Units=km
new line.10265532 bus1=BBT150866824.1.2.3.0,bus2=R10265532.1.2.3.0,Phases=3,Linecode=CABBTG12_4_3,Length=0.017,Units=km
new line.10265554 bus1=BBT822665.1.0,bus2=R10265554.1.0,Phases=1,Linecode=CABBTG01_4_1,Length=0.017,Units=km
new line.10324766 bus1=BBT114407003.1.0,bus2=R10324766.1.0,Phases=1,Linecode=CABBTG02_4_1,Length=0.017,Units=km
new line.10325868 bus1=BBT150867822.1.0,bus2=R10325868.1.0,Phases=1,Linecode=CABBTG02_4_1,Length=0.017,Units=km
new line.10381102 bus1=BBT813411.1.0,bus2=R10381102.1.0,Phases=1,Linecode=CABBTG02_4_1,Length=0.017,Units=km
new line.10381103 bus1=BBT814048.1.0,bus2=R10381103.1.0,Phases=1,Linecode=CABBTG02_4_1,Length=0.017,Units=km
new line.10381104 bus1=BBT814048.1.0,bus2=R10381104.1.0,Phases=1,Linecode=CABBTG02_4_1,Length=0.017,Units=km
new line.10382652 bus1=BBT153268189.1.2.0,bus2=R10382652.1.2.0,Phases=2,Linecode=CABBTG05_4_2,Length=0.017,Units=km
new line.10382837 bus1=BBT813859.1.0,bus2=R10382837.1.0,Phases=1,Linecode=CABBTG02_4_1,Length=0.017,Units=km
new line.10382976 bus1=BBT153276069.1.2.0,bus2=R10382976.1.2.0,Phases=2,Linecode=CABBTG05_4_2,Length=0.017,Units=km
new line.10408201 bus1=BBT152801399.1.0,bus2=R10408201.1.0,Phases=1,Linecode=CABBTG02_4_1,Length=0.017,Units=km
new line.10429824 bus1=BBT812270.1.2.3.0,bus2=R10429824.1.2.3.0,Phases=3,Linecode=CABBTG06_4_3,Length=0.017,Units=km
new line.10284056 bus1=BBT3856381.1.0,bus2=R10284056.1.0,Phases=1,Linecode=CABBTG02_4_1,Length=0.017,Units=km
new line.10284084 bus1=BBT812186.1.2.0,bus2=R10284084.1.2.0,Phases=2,Linecode=CABBTG05_4_2,Length=0.017,Units=km
new line.10284131 bus1=BBT812053.1.2.0,bus2=R10284131.1.2.0,Phases=2,Linecode=CABBTG05_4_2,Length=0.017,Units=km
new line.10284841 bus1=BBT814832.1.0,bus2=R10284841.1.0,Phases=1,Linecode=CABBTG02_4_1,Length=0.017,Units=km
new line.10284970 bus1=BBT128062806.1.2.0,bus2=R10284970.1.2.0,Phases=2,Linecode=CABBTG05_4_2,Length=0.017,Units=km
new line.10286416 bus1=BBT128063275.1.2.0,bus2=R10286416.1.2.0,Phases=2,Linecode=CABBTG05_4_2,Length=0.017,Units=km
new line.10370824 bus1=BBT150866824.1.0,bus2=R10370824.1.0,Phases=1,Linecode=CABBTG02_4_1,Length=0.017,Units=km
new line.10371139 bus1=BBT10639640.1.2.0,bus2=R10371139.1.2.0,Phases=2,Linecode=CABBTG05_4_2,Length=0.017,Units=km
new line.10372341 bus1=BBT133898832.1.2.0,bus2=R10372341.1.2.0,Phases=2,Linecode=CABBTG13_4_2,Length=0.017,Units=km
new line.10372357 bus1=BBT920000.1.2.0,bus2=R10372357.1.2.0,Phases=2,Linecode=CABBTG13_4_2,Length=0.017,Units=km
new line.10399649 bus1=BBT815896.1.2.0,bus2=R10399649.1.2.0,Phases=2,Linecode=CABBTG05_4_2,Length=0.017,Units=km
new line.10399655 bus1=BBT815896.1.2.3.0,bus2=R10399655.1.2.3.0,Phases=3,Linecode=CABBTG06_4_3,Length=0.017,Units=km
new line.10400568 bus1=BBT153635728.1.2.0,bus2=R10400568.1.2.0,Phases=2,Linecode=CABBTG05_4_2,Length=0.017,Units=km
new line.10400625 bus1=BBT152801349.1.0,bus2=R10400625.1.0,Phases=1,Linecode=CABBTG02_4_1,Length=0.017,Units=km
new line.10427213 bus1=BBT814328.1.2.0,bus2=R10427213.1.2.0,Phases=2,Linecode=CABBTG05_4_2,Length=0.017,Units=km
new line.10427215 bus1=BBT128054469.1.0,bus2=R10427215.1.0,Phases=1,Linecode=CABBTG02_4_1,Length=0.017,Units=km
new line.10454647 bus1=BBT150866311.1.0,bus2=R10454647.1.0,Phases=1,Linecode=CABBTG02_4_1,Length=0.017,Units=km
new line.10245879 bus1=BBT150866626.1.0,bus2=R10245879.1.0,Phases=1,Linecode=CABBTG02_4_1,Length=0.017,Units=km
new line.10245911 bus1=BBT813887.1.2.3.0,bus2=R10245911.1.2.3.0,Phases=3,Linecode=CABBTG12_4_3,Length=0.017,Units=km
new line.10247086 bus1=BBT150871383.1.2.0,bus2=R10247086.1.2.0,Phases=2,Linecode=CABBTG05_4_2,Length=0.017,Units=km
new line.10302055 bus1=BBT815504.1.0,bus2=R10302055.1.0,Phases=1,Linecode=CABBTG02_4_1,Length=0.017,Units=km
new line.10302071 bus1=BBT150867084.1.0,bus2=R10302071.1.0,Phases=1,Linecode=CABBTG02_4_1,Length=0.017,Units=km
new line.10329281 bus1=BBT966697.1.2.0,bus2=R10329281.1.2.0,Phases=2,Linecode=CABBTG05_4_2,Length=0.017,Units=km
new line.10383317 bus1=BBT3624233.1.0,bus2=R10383317.1.0,Phases=1,Linecode=CABBTG02_4_1,Length=0.017,Units=km
new line.10386343 bus1=BBT153304809.1.2.0,bus2=R10386343.1.2.0,Phases=2,Linecode=CABBTG13_4_2,Length=0.017,Units=km
new line.10386369 bus1=BBT153303589.1.2.0,bus2=R10386369.1.2.0,Phases=2,Linecode=CABBTG13_4_2,Length=0.017,Units=km
new line.10417896 bus1=BBT825388.1.2.0,bus2=R10417896.1.2.0,Phases=2,Linecode=CABBTG05_4_2,Length=0.017,Units=km
new line.10446266 bus1=BBT128063275.1.0,bus2=R10446266.1.0,Phases=1,Linecode=CABBTG02_4_1,Length=0.017,Units=km
new line.10446270 bus1=BBT150867571.1.0,bus2=R10446270.1.0,Phases=1,Linecode=CABBTG02_4_1,Length=0.017,Units=km
new line.10446370 bus1=BBT814139.1.2.0,bus2=R10446370.1.2.0,Phases=2,Linecode=CABBTG05_4_2,Length=0.017,Units=km
new line.10472895 bus1=BBT128071822.1.0,bus2=R10472895.1.0,Phases=1,Linecode=CABBTG02_4_1,Length=0.017,Units=km
new line.10472944 bus1=BBT150871374.1.2.0,bus2=R10472944.1.2.0,Phases=2,Linecode=CABBTG05_4_2,Length=0.017,Units=km
new line.10473015 bus1=BBT812690.1.0,bus2=R10473015.1.0,Phases=1,Linecode=CABBTG02_4_1,Length=0.017,Units=km
new line.10473020 bus1=BBT812690.1.2.3.0,bus2=R10473020.1.2.3.0,Phases=3,Linecode=CABBTG06_4_3,Length=0.017,Units=km
new line.10411544 bus1=BBT128054007.1.2.0,bus2=R10411544.1.2.0,Phases=2,Linecode=CABBTG05_4_2,Length=0.014,Units=km
new line.10411557 bus1=BBT150867823.1.0,bus2=R10411557.1.0,Phases=1,Linecode=CABBTG02_4_1,Length=0.017,Units=km
new line.10411562 bus1=BBT128054602.1.0,bus2=R10411562.1.0,Phases=1,Linecode=CABBTG02_4_1,Length=0.017,Units=km
new line.10411568 bus1=BBT822693.1.2.3.0,bus2=R10411568.1.2.3.0,Phases=3,Linecode=CABBTG06_4_3,Length=0.017,Units=km
new line.10411575 bus1=BBT814342.1.2.0,bus2=R10411575.1.2.0,Phases=2,Linecode=CABBTG05_4_2,Length=0.017,Units=km
new line.10442520 bus1=BBT154428707.1.2.0,bus2=R10442520.1.2.0,Phases=2,Linecode=CABBT810_4_2,Length=0.029,Units=km
new line.10442824 bus1=BBT824898.1.0,bus2=R10442824.1.0,Phases=1,Linecode=CABBTG02_4_1,Length=0.017,Units=km
new line.10443112 bus1=BBT822063.1.2.0,bus2=R10443112.1.2.0,Phases=2,Linecode=CABBTG05_4_2,Length=0.017,Units=km
new line.10458533 bus1=BBT812613.1.2.3.0,bus2=R10458533.1.2.3.0,Phases=3,Linecode=CABBTG06_4_3,Length=0.017,Units=km
new line.10458552 bus1=BBT10639682.1.2.0,bus2=R10458552.1.2.0,Phases=2,Linecode=CABBTG05_4_2,Length=0.017,Units=km
new line.10458570 bus1=BBT815126.1.2.0,bus2=R10458570.1.2.0,Phases=2,Linecode=CABBTG05_4_2,Length=0.017,Units=km
new line.10458594 bus1=BBT843854.1.2.0,bus2=R10458594.1.2.0,Phases=2,Linecode=CABBTG05_4_2,Length=0.017,Units=km
new line.10461187 bus1=BBT815119.1.0,bus2=R10461187.1.0,Phases=1,Linecode=CABBTG02_4_1,Length=0.017,Units=km
new line.10486245 bus1=BBT155490257.1.2.0,bus2=R10486245.1.2.0,Phases=2,Linecode=CABBTG05_4_2,Length=0.023,Units=km
new line.10487040 bus1=BBT814755.1.2.3.0,bus2=R10487040.1.2.3.0,Phases=3,Linecode=CABBTG06_4_3,Length=0.017,Units=km
new line.10488827 bus1=BBT813173.1.0,bus2=R10488827.1.0,Phases=1,Linecode=CABBTG02_4_1,Length=0.017,Units=km
new line.10489032 bus1=BBT5092847.1.0,bus2=R10489032.1.0,Phases=1,Linecode=CABBTG02_4_1,Length=0.017,Units=km
new line.10429825 bus1=BBT814433.1.0,bus2=R10429825.1.0,Phases=1,Linecode=CABBTG02_4_1,Length=0.017,Units=km
new line.10429830 bus1=BBT128072109.1.2.0,bus2=R10429830.1.2.0,Phases=2,Linecode=CABBTG05_4_2,Length=0.017,Units=km
new line.10430139 bus1=BBT824212.1.2.0,bus2=R10430139.1.2.0,Phases=2,Linecode=CABBTG05_4_2,Length=0.017,Units=km
new line.10462328 bus1=BBT825941.1.0,bus2=R10462328.1.0,Phases=1,Linecode=CABBTG02_4_1,Length=0.017,Units=km
new line.10462332 bus1=BBT150867739.1.0,bus2=R10462332.1.0,Phases=1,Linecode=CABBTG02_4_1,Length=0.017,Units=km
new line.10462334 bus1=BBT5092847.1.0,bus2=R10462334.1.0,Phases=1,Linecode=CABBTG02_4_1,Length=0.017,Units=km
new line.10462336 bus1=BBT128071822.1.0,bus2=R10462336.1.0,Phases=1,Linecode=CABBTG02_4_1,Length=0.017,Units=km
new line.10462339 bus1=BBT813411.1.2.0,bus2=R10462339.1.2.0,Phases=2,Linecode=CABBTG05_4_2,Length=0.017,Units=km
new line.10462341 bus1=BBT837001.1.2.0,bus2=R10462341.1.2.0,Phases=2,Linecode=CABBTG05_4_2,Length=0.017,Units=km
new line.10462649 bus1=BBT129993119.1.0,bus2=R10462649.1.0,Phases=1,Linecode=CABBTG02_4_1,Length=0.017,Units=km
new line.10462790 bus1=BBT7624831.1.0,bus2=R10462790.1.0,Phases=1,Linecode=CABBTG02_4_1,Length=0.017,Units=km
new line.10493585 bus1=BBT3901384.1.2.0,bus2=R10493585.1.2.0,Phases=2,Linecode=CABBT811_4_2,Length=0.026,Units=km
new line.10494487 bus1=BBT154913842.1.2.0,bus2=R10494487.1.2.0,Phases=2,Linecode=CABBTG05_4_2,Length=0.01,Units=km
new line.10495345 bus1=BBT948868.1.0,bus2=R10495345.1.0,Phases=1,Linecode=CABBT802_4_1,Length=0.011,Units=km
new line.10495474 bus1=BBT822063.1.2.0,bus2=R10495474.1.2.0,Phases=2,Linecode=CABBTG05_4_2,Length=0.013,Units=km
new line.10544504 bus1=BBT150867318.1.0,bus2=R10544504.1.0,Phases=1,Linecode=CABBT802_4_1,Length=0.006,Units=km
new line.10544744 bus1=BBT816120.1.0,bus2=R10544744.1.0,Phases=1,Linecode=CABBT802_4_1,Length=0.019,Units=km
new line.10523461 bus1=BBT4427049.1.2.0,bus2=R10523461.1.2.0,Phases=2,Linecode=CABBTG05_4_2,Length=0.01,Units=km
new line.10556740 bus1=BBT5092840.1.0,bus2=R10556740.1.0,Phases=1,Linecode=CABBTG02_4_1,Length=0.017,Units=km
new line.10556780 bus1=BBT814272.1.0,bus2=R10556780.1.0,Phases=1,Linecode=CABBTG02_4_1,Length=0.014,Units=km
new line.10557576 bus1=BBT156052835.1.2.0,bus2=R10557576.1.2.0,Phases=2,Linecode=CABBTG05_4_2,Length=0.018,Units=km
new line.10558011 bus1=BBT816400.1.2.0,bus2=R10558011.1.2.0,Phases=2,Linecode=CABBTG05_4_2,Length=0.021,Units=km
new line.10558012 bus1=BBT824646.1.2.0,bus2=R10558012.1.2.0,Phases=2,Linecode=CABBTG05_4_2,Length=0.007,Units=km
new line.10558013 bus1=BBT5092840.1.0,bus2=R10558013.1.0,Phases=1,Linecode=CABBTG02_4_1,Length=0.018,Units=km
new line.10558014 bus1=BBT813068.1.2.0,bus2=R10558014.1.2.0,Phases=2,Linecode=CABBTG05_4_2,Length=0.017,Units=km
new line.10558015 bus1=BBT150871383.1.0,bus2=R10558015.1.0,Phases=1,Linecode=CABBTG02_4_1,Length=0.025,Units=km
new line.10558017 bus1=BBT152801432.1.2.0,bus2=R10558017.1.2.0,Phases=2,Linecode=CABBTG05_4_2,Length=0.01,Units=km
new line.10558019 bus1=BBT843847.1.0,bus2=R10558019.1.0,Phases=1,Linecode=CABBTG02_4_1,Length=0.009,Units=km
new line.10558020 bus1=BBT813152.1.2.0,bus2=R10558020.1.2.0,Phases=2,Linecode=CABBTG05_4_2,Length=0.017,Units=km
new line.10558021 bus1=BBT150871383.1.0,bus2=R10558021.1.0,Phases=1,Linecode=CABBTG02_4_1,Length=0.007,Units=km
...
