FeederExample/ArquivosDssMTBT/ABDD201/ABDD201ChavesMT.dss
new line.CTR110996 bus1=BMT155936468,bus2=BMT155936830,Phases=1,r1=0.001,r0=0.001,x1=0,x0=0,c1=0,c0=0,Length=0.001,Units=km,switch=T
new line.CTR12527 bus1=BMT119691639,bus2=BMT119696301,Phases=1,r1=0.001,r0=0.001,x1=0,x0=0,c1=0,c0=0,Length=0.001,Units=km,switch=T
new line.CTR12569 bus1=BMT119702041,bus2=BMT119702062,Phases=1,r1=0.001,r0=0.001,x1=0,x0=0,c1=0,c0=0,Length=0.001,Units=km,switch=T
new line.CTR19275 bus1=BMT119693452,bus2=BMT158476979,Phases=1,r1=0.001,r0=0.001,x1=0,x0=0,c1=0,c0=0,Length=0.001,Units=km,switch=T
new line.CTR192826 bus1=BMT119698758,bus2=BMT156328754,Phases=1,r1=0.001,r0=0.001,x1=0,x0=0,c1=0,c0=0,Length=0.001,Units=km,switch=T
new line.CTR193323 bus1=BMT119700571,bus2=BMT156328479,Phases=1,r1=0.001,r0=0.001,x1=0,x0=0,c1=0,c0=0,Length=0.001,Units=km,switch=T
new line.CTR212979 bus1=BMT119701411,bus2=BMT119702244,Phases=1,r1=0.001,r0=0.001,x1=0,x0=0,c1=0,c0=0,Length=0.001,Units=km,switch=T
new line.CTR213308 bus1=BMT148527824,bus2=BMT119691037,Phases=1,r1=0.001,r0=0.001,x1=0,x0=0,c1=0,c0=0,Length=0.001,Units=km,switch=T
open line.CTR213308 term=1
new line.CTR213315 bus1=BMT119690071,bus2=BMT161419097,Phases=1,r1=0.001,r0=0.001,x1=0,x0=0,c1=0,c0=0,Length=0.001,Units=km,switch=T
new line.CTR213322 bus1=BMT119690512,bus2=BMT162681851,Phases=1,r1=0.001,r0=0.001,x1=0,x0=0,c1=0,c0=0,Length=0.001,Units=km,switch=T
new line.CTR213357 bus1=BMT119689203,bus2=BMT119704288,Phases=1,r1=0.001,r0=0.001,x1=0,x0=0,c1=0,c0=0,Length=0.001,Units=km,switch=T
new line.CTR213371 bus1=BMT119689308,bus2=BMT160953009,Phases=1,r1=0.001,r0=0.001,x1=0,x0=0,c1=0,c0=0,Length=0.001,Units=km,switch=T
new line.CTR213392 bus1=BMT119691485,bus2=BMT119701194,Phases=1,r1=0.001,r0=0.001,x1=0,x0=0,c1=0,c0=0,Length=0.001,Units=km,switch=T
new line.CTR213406 bus1=BMT119696798,bus2=BMT165499926,Phases=3,r1=0.001,r0=0.001,x1=0,x0=0,c1=0,c0=0,Length=0.001,Units=km,switch=T
new line.CTR213413 bus1=BMT119689420,bus2=BMT160609052,Phases=1,r1=0.001,r0=0.001,x1=0,x0=0,c1=0,c0=0,Length=0.001,Units=km,switch=T
new line.CTR213420 bus1=BMT119691401,bus2=BMT163977950,Phases=3,r1=0.001,r0=0.001,x1=0,x0=0,c1=0,c0=0,Length=0.001,Units=km,switch=T
new line.CTR213441 bus1=BMT119697547,bus2=BMT135166987,Phases=1,r1=0.001,r0=0.001,x1=0,x0=0,c1=0,c0=0,Length=0.001,Units=km,switch=T
new line.CTR213448 bus1=BMT119697470,bus2=BMT153484246,Phases=3,r1=0.001,r0=0.001,x1=0,x0=0,c1=0,c0=0,Length=0.001,Units=km,switch=T
new line.CTR213476 bus1=BMT119691716,bus2=BMT119695797,Phases=1,r1=0.001,r0=0.001,x1=0,x0=0,c1=0,c0=0,Length=0.001,Units=km,switch=T
new line.CTR213497 bus1=BMT119692073,bus2=BMT157315703,Phases=1,r1=0.001,r0=0.001,x1=0,x0=0,c1=0,c0=0,Length=0.001,Units=km,switch=T
new line.CTR213511 bus1=BMT119691884,bus2=BMT119694082,Phases=1,r1=0.001,r0=0.001,x1=0,x0=0,c1=0,c0=0,Length=0.001,Units=km,switch=T
new line.CTR213518 bus1=BMT119694453,bus2=BMT164381140,Phases=1,r1=0.001,r0=0.001,x1=0,x0=0,c1=0,c0=0,Length=0.001,Units=km,switch=T
new line.CTR213532 bus1=BMT119696525,bus2=BMT119696539,Phases=1,r1=0.001,r0=0.001,x1=0,x0=0,c1=0,c0=0,Length=0.001,Units=km,switch=T
new line.CTR135482 bus1=BMT155936281,bus2=BMT155936284,Phases=1,r1=0.001,r0=0.001,x1=0,x0=0,c1=0,c0=0,Length=0.001,Units=km,switch=T
new line.CTR136301 bus1=BMT119695916,bus2=BMT119695923,Phases=1,r1=0.001,r0=0.001,x1=0,x0=0,c1=0,c0=0,Length=0.001,Units=km,switch=T
new line.CTR150231 bus1=BMT155936097,bus2=BMT155936972,Phases=1,r1=0.001,r0=0.001,x1=0,x0=0,c1=0,c0=0,Length=0.001,Units=km,switch=T
new line.CTR150546 bus1=BMT119695545,bus2=BMT119695685,Phases=1,r1=0.001,r0=0.001,x1=0,x0=0,c1=0,c0=0,Length=0.001,Units=km,switch=T
new line.CTR150840 bus1=BMT119692206,bus2=BMT156328355,Phases=1,r1=0.001,r0=0.001,x1=0,x0=0,c1=0,c0=0,Length=0.001,Units=km,switch=T
new line.CTR15096 bus1=BMT119703917,bus2=BMT119704008,Phases=1,r1=0.001,r0=0.001,x1=0,x0=0,c1=0,c0=0,Length=0.001,Units=km,switch=T
new line.CTR164644 bus1=BMT155937220,bus2=BMT155937222,Phases=3,r1=0.001,r0=0.001,x1=0,x0=0,c1=0,c0=0,Length=0.001,Units=km,switch=T
new line.CTR17798 bus1=BMT119703931,bus2=BMT119703959,Phases=1,r1=0.001,r0=0.001,x1=0,x0=0,c1=0,c0=0,Length=0.001,Units=km,switch=T
new line.CTR178070 bus1=BMT155936243,bus2=BMT155936893,Phases=1,r1=0.001,r0=0.001,x1=0,x0=0,c1=0,c0=0,Length=0.001,Units=km,switch=T
new line.CTR179351 bus1=BMT155936253,bus2=BMT155936885,Phases=1,r1=0.001,r0=0.001,x1=0,x0=0,c1=0,c0=0,Length=0.001,Units=km,switch=T
new line.CTR195220 bus1=BMT119697631,bus2=BMT158429848,Phases=1,r1=0.001,r0=0.001,x1=0,x0=0,c1=0,c0=0,Length=0.001,Units=km,switch=T
new line.CTR195815 bus1=BMT155935863,bus2=BMT155936022,Phases=1,r1=0.001,r0=0.001,x1=0,x0=0,c1=0,c0=0,Length=0.001,Units=km,switch=T
new line.CTR19604 bus1=BMT119698492,bus2=BMT156328715,Phases=1,r1=0.001,r0=0.001,x1=0,x0=0,c1=0,c0=0,Length=0.001,Units=km,switch=T
new line.CTR196144 bus1=BMT119697610,bus2=BMT119697624,Phases=1,r1=0.001,r0=0.001,x1=0,x0=0,c1=0,c0=0,Length=0.001,Units=km,switch=T
new line.CTR196151 bus1=BMT119694747,bus2=BMT119694922,Phases=1,r1=0.001,r0=0.001,x1=0,x0=0,c1=0,c0=0,Length=0.001,Units=km,switch=T
new line.CTR216122 bus1=BMT155935671,bus2=BMT155935784,Phases=1,r1=0.001,r0=0.001,x1=0,x0=0,c1=0,c0=0,Length=0.001,Units=km,switch=T
new line.CTR216528 bus1=BMT155935615,bus2=BMT155937136,Phases=1,r1=0.001,r0=0.001,x1=0,x0=0,c1=0,c0=0,Length=0.001,Units=km,switch=T
new line.CTR217550 bus1=BMT119689609,bus2=BMT119689973,Phases=1,r1=0.001,r0=0.001,x1=0,x0=0,c1=0,c0=0,Length=0.001,Units=km,switch=T
new line.CTR237409 bus1=BMT119699577,bus2=BMT119699584,Phases=1,r1=0.001,r0=0.001,x1=0,x0=0,c1=0,c0=0,Length=0.001,Units=km,switch=T
new line.CTR237472 bus1=BMT119692640,bus2=BMT119693088,Phases=1,r1=0.001,r0=0.001,x1=0,x0=0,c1=0,c0=0,Length=0.001,Units=km,switch=T
new line.CTR237682 bus1=BMT155935690,bus2=BMT155935696,Phases=1,r1=0.001,r0=0.001,x1=0,x0=0,c1=0,c0=0,Length=0.001,Units=km,switch=T
new line.CTR237892 bus1=BMT159655249,bus2=BMT159655270,Phases=1,r1=0.001,r0=0.001,x1=0,x0=0,c1=0,c0=0,Length=0.001,Units=km,switch=T
new line.CTR105235 bus1=BMT155935643,bus2=BMT160983818,Phases=3,r1=0.001,r0=0.001,x1=0,x0=0,c1=0,c0=0,Length=0.001,Units=km,switch=T
new line.CTR118661 bus1=BMT155935877,bus2=BMT155936007,Phases=1,r1=0.001,r0=0.001,x1=0,x0=0,c1=0,c0=0,Length=0.001,Units=km,switch=T
new line.CTR13248 bus1=BMT119693718,bus2=BMT119693732,Phases=1,r1=0.001,r0=0.001,x1=0,x0=0,c1=0,c0=0,Length=0.001,Units=km,switch=T
new line.CTR132717 bus1=BMT119699311,bus2=BMT119699318,Phases=3,r1=0.001,r0=0.001,x1=0,x0=0,c1=0,c0=0,Length=0.001,Units=km,switch=T
new line.CTR132899 bus1=BMT155936511,bus2=BMT155936688,Phases=1,r1=0.001,r0=0.001,x1=0,x0=0,c1=0,c0=0,Length=0.001,Units=km,switch=T
new line.CTR14781 bus1=BMT119695279,bus2=BMT119695293,Phases=1,r1=0.001,r0=0.001,x1=0,x0=0,c1=0,c0=0,Length=0.001,Units=km,switch=T
new line.CTR174433 bus1=BMT119699108,bus2=BMT119699115,Phases=1,r1=0.001,r0=0.001,x1=0,x0=0,c1=0,c0=0,Length=0.001,Units=km,switch=T
new line.CTR174458 bus1=BMT155936232,bus2=BMT155936967,Phases=1,r1=0.001,r0=0.001,x1=0,x0=0,c1=0,c0=0,Length=0.001,Units=km,switch=T
new line.CTR174752 bus1=BMT119701572,bus2=BMT119702188,Phases=1,r1=0.001,r0=0.001,x1=0,x0=0,c1=0,c0=0,Length=0.001,Units=km,switch=T
new line.CTR175802 bus1=BMT155936479,bus2=BMT155936487,Phases=1,r1=0.001,r0=0.001,x1=0,x0=0,c1=0,c0=0,Length=0.001,Units=km,switch=T
new line.CTR175809 bus1=BMT155936484,bus2=BMT155936491,Phases=3,r1=0.001,r0=0.001,x1=0,x0=0,c1=0,c0=0,Length=0.001,Units=km,switch=T
new line.CTR187261 bus1=BMT119697085,bus2=BMT119697106,Phases=1,r1=0.001,r0=0.001,x1=0,x0=0,c1=0,c0=0,Length=0.001,Units=km,switch=T
new line.CTR204691 bus1=BMT119697946,bus2=BMT119698072,Phases=1,r1=0.001,r0=0.001,x1=0,x0=0,c1=0,c0=0,Length=0.001,Units=km,switch=T
new line.CTR205321 bus1=BMT119702622,bus2=BMT158755796,Phases=1,r1=0.001,r0=0.001,x1=0,x0=0,c1=0,c0=0,Length=0.001,Units=km,switch=T
new line.CTR206784 bus1=BMT119696091,bus2=BMT164240044,Phases=1,r1=0.001,r0=0.001,x1=0,x0=0,c1=0,c0=0,Length=0.001,Units=km,switch=T
new line.CTR226545 bus1=BMT155935912,bus2=BMT155935988,Phases=1,r1=0.001,r0=0.001,x1=0,x0=0,c1=0,c0=0,Length=0.001,Units=km,switch=T
new line.CTR227630 bus1=BMT119689441,bus2=BMT163975108,Phases=1,r1=0.001,r0=0.001,x1=0,x0=0,c1=0,c0=0,Length=0.001,Units=km,switch=T
new line.CTR227889 bus1=BMT119697344,bus2=BMT158430287,Phases=1,r1=0.001,r0=0.001,x1=0,x0=0,c1=0,c0=0,Length=0.001,Units=km,switch=T
new line.CTR227966 bus1=BMT119689406,bus2=BMT162915511,Phases=1,r1=0.001,r0=0.001,x1=0,x0=0,c1=0,c0=0,Length=0.001,Units=km,switch=T
new line.CTR228351 bus1=BMT119689525,bus2=BMT162410239,Phases=1,r1=0.001,r0=0.001,x1=0,x0=0,c1=0,c0=0,Length=0.001,Units=km,switch=T
new line.CTR249673 bus1=BMT155936698,bus2=BMT155936701,Phases=1,r1=0.001,r0=0.001,x1=0,x0=0,c1=0,c0=0,Length=0.001,Units=km,switch=T
new line.CTR249680 bus1=BMT155936703,bus2=BMT155936715,Phases=1,r1=0.001,r0=0.001,x1=0,x0=0,c1=0,c0=0,Length=0.001,Units=km,switch=T
new line.CTR137729 bus1=BMT119701971,bus2=BMT119701985,Phases=1,r1=0.001,r0=0.001,x1=0,x0=0,c1=0,c0=0,Length=0.001,Units=km,switch=T
new line.CTR138786 bus1=BMT119691996,bus2=BMT156274534,Phases=3,r1=0.001,r0=0.001,x1=0,x0=0,c1=0,c0=0,Length=0.001,Units=km,switch=T
new line.CTR153003 bus1=BMT155936571,bus2=BMT155936586,Phases=1,r1=0.001,r0=0.001,x1=0,x0=0,c1=0,c0=0,Length=0.001,Units=km,switch=T
new line.CTR15474 bus1=BMT119699752,bus2=BMT164249652,Phases=1,r1=0.001,r0=0.001,x1=0,x0=0,c1=0,c0=0,Length=0.001,Units=km,switch=T
new line.CTR181479 bus1=BMT119701502,bus2=BMT119702216,Phases=1,r1=0.001,r0=0.001,x1=0,x0=0,c1=0,c0=0,Length=0.001,Units=km,switch=T
new line.CTR18204 bus1=BMT119704176,bus2=BMT119704232,Phases=1,r1=0.001,r0=0.001,x1=0,x0=0,c1=0,c0=0,Length=0.001,Units=km,switch=T
new line.CTR182354 bus1=BMT155935874,bus2=BMT155936013,Phases=1,r1=0.001,r0=0.001,x1=0,x0=0,c1=0,c0=0,Length=0.001,Units=km,switch=T
new line.CTR182970 bus1=BMT155936622,bus2=BMT155936624,Phases=1,r1=0.001,r0=0.001,x1=0,x0=0,c1=0,c0=0,Length=0.001,Units=km,switch=T
new line.CTR197250 bus1=BMT119700788,bus2=BMT156328525,Phases=1,r1=0.001,r0=0.001,x1=0,x0=0,c1=0,c0=0,Length=0.001,Units=km,switch=T
new line.CTR19870 bus1=BMT119697267,bus2=BMT119699878,Phases=1,r1=0.001,r0=0.001,x1=0,x0=0,c1=0,c0=0,Length=0.001,Units=km,switch=T
new line.CTR218467 bus1=BMT119691394,bus2=BMT119702601,Phases=1,r1=0.001,r0=0.001,x1=0,x0=0,c1=0,c0=0,Length=0.001,Units=km,switch=T
new line.CTR218474 bus1=BMT155935812,bus2=BMT155935815,Phases=1,r1=0.001,r0=0.001,x1=0,x0=0,c1=0,c0=0,Length=0.001,Units=km,switch=T
new line.CTR218803 bus1=BMT155936904,bus2=BMT155936950,Phases=1,r1=0.001,r0=0.001,x1=0,x0=0,c1=0,c0=0,Length=0.001,Units=km,switch=T
new line.CTR219356 bus1=BMT155936300,bus2=BMT155936431,Phases=1,r1=0.001,r0=0.001,x1=0,x0=0,c1=0,c0=0,Length=0.001,Units=km,switch=T
new line.CTR234434 bus1=BMT119690876,bus2=BMT119690897,Phases=1,r1=0.001,r0=0.001,x1=0,x0=0,c1=0,c0=0,Length=0.001,Units=km,switch=T
new line.CTR235631 bus1=BMT155935952,bus2=BMT155935961,Phases=1,r1=0.001,r0=0.001,x1=0,x0=0,c1=0,c0=0,Length=0.001,Units=km,switch=T
new line.CTR236506 bus1=BMT119701075,bus2=BMT156328485,Phases=1,r1=0.001,r0=0.001,x1=0,x0=0,c1=0,c0=0,Length=0.001,Units=km,switch=T
new line.CTR23692 bus1=BMT119689791,bus2=BMT119689812,Phases=1,r1=0.001,r0=0.001,x1=0,x0=0,c1=0,c0=0,Length=0.001,Units=km,switch=T
new line.CTR256848 bus1=BMT119690232,bus2=BMT119690316,Phases=1,r1=0.001,r0=0.001,x1=0,x0=0,c1=0,c0=0,Length=0.001,Units=km,switch=T
new line.CTR259200 bus1=BMT119689504,bus2=BMT148527817,Phases=1,r1=0.001,r0=0.001,x1=0,x0=0,c1=0,c0=0,Length=0.001,Units=km,switch=T
new line.CTR259221 bus1=BMT119689532,bus2=BMT119690477,Phases=3,r1=0.001,r0=0.001,x1=0,x0=0,c1=0,c0=0,Length=0.001,Units=km,switch=T
new line.CTR259928 bus1=BMT119696742,bus2=BMT119696805,Phases=3,r1=0.001,r0=0.001,x1=0,x0=0,c1=0,c0=0,Length=0.001,Units=km,switch=T
new line.CTR160122 bus1=BMT119692241,bus2=BMT164891301,Phases=1,r1=0.001,r0=0.001,x1=0,x0=0,c1=0,c0=0,Length=0.001,Units=km,switch=T
new line.CTR160129 bus1=BMT119692220,bus2=BMT156328349,Phases=1,r1=0.001,r0=0.001,x1=0,x0=0,c1=0,c0=0,Length=0.001,Units=km,switch=T
new line.CTR16174 bus1=BMT155935684,bus2=BMT155935771,Phases=1,r1=0.001,r0=0.001,x1=0,x0=0,c1=0,c0=0,Length=0.001,Units=km,switch=T
new line.CTR191461 bus1=BMT119694418,bus2=BMT119694971,Phases=1,r1=0.001,r0=0.001,x1=0,x0=0,c1=0,c0=0,Length=0.001,Units=km,switch=T
new line.CTR191832 bus1=BMT155936466,bus2=BMT163965409,Phases=1,r1=0.001,r0=0.001,x1=0,x0=0,c1=0,c0=0,Length=0.001,Units=km,switch=T
new line.CTR210445 bus1=BMT155937052,bus2=BMT155937054,Phases=1,r1=0.001,r0=0.001,x1=0,x0=0,c1=0,c0=0,Length=0.001,Units=km,switch=T
new line.CTR210753 bus1=BMT155936240,bus2=BMT155936963,Phases=1,r1=0.001,r0=0.001,x1=0,x0=0,c1=0,c0=0,Length=0.001,Units=km,switch=T
new line.CTR210760 bus1=BMT155936241,bus2=BMT163344048,Phases=1,r1=0.001,r0=0.001,x1=0,x0=0,c1=0,c0=0,Length=0.001,Units=km,switch=T
new line.CTR211250 bus1=BMT119702993,bus2=BMT163043665,Phases=1,r1=0.001,r0=0.001,x1=0,x0=0,c1=0,c0=0,Length=0.001,Units=km,switch=T
new line.CTR211446 bus1=BMT151203134,bus2=BMT164191561,Phases=1,r1=0.001,r0=0.001,x1=0,x0=0,c1=0,c0=0,Length=0.001,Units=km,switch=T
new line.CTR232096 bus1=BMT155936897,bus2=BMT155936898,Phases=1,r1=0.001,r0=0.001,x1=0,x0=0,c1=0,c0=0,Length=0.001,Units=km,switch=T
new line.CTR232208 bus1=BMT155937033,bus2=BMT155937040,Phases=1,r1=0.001,r0=0.001,x1=0,x0=0,c1=0,c0=0,Length=0.001,Units=km,switch=T
new line.CTR23230 bus1=BMT119692129,bus2=BMT119692577,Phases=1,r1=0.001,r0=0.001,x1=0,x0=0,c1=0,c0=0,Length=0.001,Units=km,switch=T
new line.CTR23237 bus1=BMT119692101,bus2=BMT119693144,Phases=1,r1=0.001,r0=0.001,x1=0,x0=0,c1=0,c0=0,Length=0.001,Units=km,switch=T
new line.CTR232593 bus1=BMT119691632,bus2=BMT119696427,Phases=1,r1=0.001,r0=0.001,x1=0,x0=0,c1=0,c0=0,Length=0.001,Units=km,switch=T
new line.CTR232733 bus1=BMT119689560,bus2=BMT164003527,Phases=1,r1=0.001,r0=0.001,x1=0,x0=0,c1=0,c0=0,Length=0.001,Units=km,switch=T
new line.CTR234196 bus1=BMT155936256,bus2=BMT159220223,Phases=3,r1=0.001,r0=0.001,x1=0,x0=0,c1=0,c0=0,Length=0.001,Units=km,switch=T
new line.CTR234308 bus1=BMT152369480,bus2=BMT152369481,Phases=1,r1=0.001,r0=0.001,x1=0,x0=0,c1=0,c0=0,Length=0.001,Units=km,switch=T
new line.CTR254097 bus1=BMT119693235,bus2=BMT119693795,Phases=1,r1=0.001,r0=0.001,x1=0,x0=0,c1=0,c0=0,Length=0.001,Units=km,switch=T
new line.CTR254139 bus1=BMT119698632,bus2=BMT156328752,Phases=1,r1=0.001,r0=0.001,x1=0,x0=0,c1=0,c0=0,Length=0.001,Units=km,switch=T
new line.CTR25449 bus1=BMT119700739,bus2=BMT163610391,Phases=1,r1=0.001,r0=0.001,x1=0,x0=0,c1=0,c0=0,Length=0.001,Units=km,switch=T
new line.CTR276721 bus1=BMT155936207,bus2=BMT155936209,Phases=1,r1=0.001,r0=0.001,x1=0,x0=0,c1=0,c0=0,Length=0.001,Units=km,switch=T
new line.CTR213574 bus1=BMT155937141,bus2=BMT155937142,Phases=3,r1=0.001,r0=0.001,x1=0,x0=0,c1=0,c0=0,Length=0.001,Units=km,switch=T
new line.CTR213581 bus1=BMT155935614,bus2=BMT155937138,Phases=1,r1=0.001,r0=0.001,x1=0,x0=0,c1=0,c0=0,Length=0.001,Units=km,switch=T
new line.CTR213637 bus1=BMT155935913,bus2=BMT163824005,Phases=1,r1=0.001,r0=0.001,x1=0,x0=0,c1=0,c0=0,Length=0.001,Units=km,switch=T
new line.CTR213665 bus1=BMT155936252,bus2=BMT155936265,Phases=1,r1=0.001,r0=0.001,x1=0,x0=0,c1=0,c0=0,Length=0.001,Units=km,switch=T
new line.CTR213672 bus1=BMT155936297,bus2=BMT155936437,Phases=1,r1=0.001,r0=0.001,x1=0,x0=0,c1=0,c0=0,Length=0.001,Units=km,switch=T
new line.CTR214050 bus1=BMT155935675,bus2=BMT155935782,Phases=1,r1=0.001,r0=0.001,x1=0,x0=0,c1=0,c0=0,Length=0.001,Units=km,switch=T
new line.CTR239915 bus1=BMT119692080,bus2=BMT119692136,Phases=1,r1=0.001,r0=0.001,x1=0,x0=0,c1=0,c0=0,Length=0.001,Units=km,switch=T
new line.CTR240797 bus1=BMT155935540,bus2=BMT155935543,Phases=3,r1=0.001,r0=0.001,x1=0,x0=0,c1=0,c0=0,Length=0.001,Units=km,switch=T
new line.CTR240811 bus1=BMT155935538,bus2=BMT163586276,Phases=3,r1=0.001,r0=0.001,x1=0,x0=0,c1=0,c0=0,Length=0.001,Units=km,switch=T
new line.CTR241098 bus1=BMT155936865,bus2=BMT155936871,Phases=1,r1=0.001,r0=0.001,x1=0,x0=0,c1=0,c0=0,Length=0.001,Units=km,switch=T
new line.CTR241938 bus1=BMT155936771,bus2=BMT155936799,Phases=1,r1=0.001,r0=0.001,x1=0,x0=0,c1=0,c0=0,Length=0.001,Units=km,switch=T
new line.CTR261776 bus1=BMT119691387,bus2=BMT158755795,Phases=1,r1=0.001,r0=0.001,x1=0,x0=0,c1=0,c0=0,Length=0.001,Units=km,switch=T
new line.CTR262175 bus1=BMT155935809,bus2=BMT155935811,Phases=1,r1=0.001,r0=0.001,x1=0,x0=0,c1=0,c0=0,Length=0.001,Units=km,switch=T
new line.CTR262189 bus1=BMT155935829,bus2=BMT155936076,Phases=1,r1=0.001,r0=0.001,x1=0,x0=0,c1=0,c0=0,Length=0.001,Units=km,switch=T
new line.CTR262196 bus1=BMT155935805,bus2=BMT155935823,Phases=1,r1=0.001,r0=0.001,x1=0,x0=0,c1=0,c0=0,Length=0.001,Units=km,switch=T
new line.CTR262203 bus1=BMT119703630,bus2=BMT162335962,Phases=1,r1=0.001,r0=0.001,x1=0,x0=0,c1=0,c0=0,Length=0.001,Units=km,switch=T
new line.CTR262217 bus1=BMT155936664,bus2=BMT155936665,Phases=1,r1=0.001,r0=0.001,x1=0,x0=0,c1=0,c0=0,Length=0.001,Units=km,switch=T
new line.CTR262224 bus1=BMT155936666,bus2=BMT155936668,Phases=1,r1=0.001,r0=0.001,x1=0,x0=0,c1=0,c0=0,Length=0.001,Units=km,switch=T
new line.CTR262259 bus1=BMT155935838,bus2=BMT165915956,Phases=1,r1=0.001,r0=0.001,x1=0,x0=0,c1=0,c0=0,Length=0.001,Units=km,switch=T
new line.CTR262266 bus1=BMT155935848,bus2=BMT155936061,Phases=1,r1=0.001,r0=0.001,x1=0,x0=0,c1=0,c0=0,Length=0.001,Units=km,switch=T
new line.CTR262273 bus1=BMT155936066,bus2=BMT155936068,Phases=1,r1=0.001,r0=0.001,x1=0,x0=0,c1=0,c0=0,Length=0.001,Units=km,switch=T
new line.CTR262833 bus1=BMT119691282,bus2=BMT119703112,Phases=1,r1=0.001,r0=0.001,x1=0,x0=0,c1=0,c0=0,Length=0.001,Units=km,switch=T
new line.CTR10203 bus1=BMT155935852,bus2=BMT155936041,Phases=1,r1=0.001,r0=0.001,x1=0,x0=0,c1=0,c0=0,Length=0.001,Units=km,switch=T
new line.CTR11715 bus1=BMT119700578,bus2=BMT156328541,Phases=1,r1=0.001,r0=0.001,x1=0,x0=0,c1=0,c0=0,Length=0.001,Units=km,switch=T
new line.CTR11729 bus1=BMT119695517,bus2=BMT153276400,Phases=1,r1=0.001,r0=0.001,x1=0,x0=0,c1=0,c0=0,Length=0.001,Units=km,switch=T
new line.CTR130645 bus1=BMT155936777,bus2=BMT165877387,Phases=1,r1=0.001,r0=0.001,x1=0,x0=0,c1=0,c0=0,Length=0.001,Units=km,switch=T
new line.CTR131380 bus1=BMT119699234,bus2=BMT119699346,Phases=3,r1=0.001,r0=0.001,x1=0,x0=0,c1=0,c0=0,Length=0.001,Units=km,switch=T
new line.CTR143364 bus1=BMT119695412,bus2=BMT119695426,Phases=1,r1=0.001,r0=0.001,x1=0,x0=0,c1=0,c0=0,Length=0.001,Units=km,switch=T
new line.CTR143994 bus1=BMT155936114,bus2=BMT163162939,Phases=3,r1=0.001,r0=0.001,x1=0,x0=0,c1=0,c0=0,Length=0.001,Units=km,switch=T
new line.CTR185245 bus1=BMT155176307,bus2=BMT119691814,Phases=3,r1=0.001,r0=0.001,x1=0,x0=0,c1=0,c0=0,Length=0.001,Units=km,switch=T
new line.CTR202297 bus1=BMT119689679,bus2=BMT119689931,Phases=1,r1=0.001,r0=0.001,x1=0,x0=0,c1=0,c0=0,Length=0.001,Units=km,switch=T
new line.CTR20234 bus1=BMT119689819,bus2=BMT119689854,Phases=1,r1=0.001,r0=0.001,x1=0,x0=0,c1=0,c0=0,Length=0.001,Units=km,switch=T
new line.CTR204033 bus1=BMT155936216,bus2=BMT155936218,Phases=1,r1=0.001,r0=0.001,x1=0,x0=0,c1=0,c0=0,Length=0.001,Units=km,switch=T
new line.CTR22502 bus1=BMT155935654,bus2=BMT156695217,Phases=1,r1=0.001,r0=0.001,x1=0,x0=0,c1=0,c0=0,Length=0.001,Units=km,switch=T
new line.CTR246166 bus1=BMT119699500,bus2=BMT119699514,Phases=1,r1=0.001,r0=0.001,x1=0,x0=0,c1=0,c0=0,Length=0.001,Units=km,switch=T
new line.CTR246341 bus1=BMT119703644,bus2=BMT119704078,Phases=1,r1=0.001,r0=0.001,x1=0,x0=0,c1=0,c0=0,Length=0.001,Units=km,switch=T
new line.CTR246894 bus1=BMT155935620,bus2=BMT165916835,Phases=3,r1=0.001,r0=0.001,x1=0,x0=0,c1=0,c0=0,Length=0.001,Units=km,switch=T
new line.CTR247279 bus1=BMT155935669,bus2=BMT162997922,Phases=1,r1=0.001,r0=0.001,x1=0,x0=0,c1=0,c0=0,Length=0.001,Units=km,switch=T
new line.CTR247867 bus1=BMT155936951,bus2=BMT155936953,Phases=1,r1=0.001,r0=0.001,x1=0,x0=0,c1=0,c0=0,Length=0.001,Units=km,switch=T
new line.CTR269140 bus1=BMT155935928,bus2=BMT155935934,Phases=1,r1=0.001,r0=0.001,x1=0,x0=0,c1=0,c0=0,Length=0.001,Units=km,switch=T
new line.CTR269168 bus1=BMT155937072,bus2=BMT155937084,Phases=1,r1=0.001,r0=0.001,x1=0,x0=0,c1=0,c0=0,Length=0.001,Units=km,switch=T
new line.CTR269175 bus1=BMT155937085,bus2=BMT158501356,Phases=1,r1=0.001,r0=0.001,x1=0,x0=0,c1=0,c0=0,Length=0.001,Units=km,switch=T
new line.CTR26933 bus1=BMT119691275,bus2=BMT161708336,Phases=1,r1=0.001,r0=0.001,x1=0,x0=0,c1=0,c0=0,Length=0.001,Units=km,switch=T
new line.CTR269343 bus1=BMT119689371,bus2=BMT119691191,Phases=1,r1=0.001,r0=0.001,x1=0,x0=0,c1=0,c0=0,Length=0.001,Units=km,switch=T
new line.CTR127194 bus1=BMT155936900,bus2=BMT155936957,Phases=1,r1=0.001,r0=0.001,x1=0,x0=0,c1=0,c0=0,Length=0.001,Units=km,switch=T
new line.CTR127656 bus1=BMT119689518,bus2=BMT119690491,Phases=1,r1=0.001,r0=0.001,x1=0,x0=0,c1=0,c0=0,Length=0.001,Units=km,switch=T
new line.CTR127964 bus1=BMT119694754,bus2=BMT119694845,Phases=1,r1=0.001,r0=0.001,x1=0,x0=0,c1=0,c0=0,Length=0.001,Units=km,switch=T
new line.CTR141740 bus1=BMT119693970,bus2=BMT140202997,Phases=1,r1=0.001,r0=0.001,x1=0,x0=0,c1=0,c0=0,Length=0.001,Units=km,switch=T
new line.CTR155103 bus1=BMT119694404,bus2=BMT119695055,Phases=1,r1=0.001,r0=0.001,x1=0,x0=0,c1=0,c0=0,Length=0.001,Units=km,switch=T
new line.CTR183460 bus1=BMT119695475,bus2=BMT119695489,Phases=1,r1=0.001,r0=0.001,x1=0,x0=0,c1=0,c0=0,Length=0.001,Units=km,switch=T
new line.CTR19891 bus1=BMT155936319,bus2=BMT163959723,Phases=1,r1=0.001,r0=0.001,x1=0,x0=0,c1=0,c0=0,Length=0.001,Units=km,switch=T
...