FeederExample/ArquivosDssMTBT/ABDD201/ABDD201SegmentosBT.dss
new line.TBT18779691 bus1=BBT150862337.1.2.0,bus2=BBT150862338.1.2.0,Phases=2,Linecode=BT518_BT518_7_2_1,Length=0.0005,Units=km
new line.TBT18779801 bus1=BBT150866310.1.2.3.0,bus2=BBT150866311.1.2.3.0,Phases=3,Linecode=BT518_BT518_7_3_1,Length=0.0005,Units=km
new line.TBT18779809 bus1=BBT150866311.1.2.3.0,bus2=BBT150866440.1.2.3.0,Phases=3,Linecode=BT803_BT803_4_3_4,Length=0.029213,Units=km
new line.TBT18779810 bus1=BBT150866311.1.2.3.0,bus2=BBT150866461.1.2.3.0,Phases=3,Linecode=BT803_BT803_4_3_4,Length=0.039473,Units=km
new line.TBT18779814 bus1=BBT150866461.1.2.3.0,bus2=BBT150866587.1.2.3.0,Phases=3,Linecode=BT803_BT803_4_3_4,Length=0.039473,Units=km
new line.TBT18779816 bus1=BBT150866440.1.2.3.0,bus2=BBT150866626.1.2.3.0,Phases=3,Linecode=BT803_BT803_4_3_4,Length=0.022893,Units=km
new line.TBT18779823 bus1=BBT150866626.1.2.3.0,bus2=BBT150866699.1.2.3.0,Phases=3,Linecode=BT803_BT803_4_3_4,Length=0.008546,Units=km
new line.TBT18779825 bus1=BBT150866699.1.2.3.0,bus2=BBT150866714.1.2.3.0,Phases=3,Linecode=BT803_BT803_4_3_4,Length=0.016124,Units=km
new line.TBT18779826 bus1=BBT150866714.1.2.3.0,bus2=BBT150866715.1.2.3.0,Phases=3,Linecode=BT803_BT803_4_3_4,Length=0.018029,Units=km
new line.TBT18779827 bus1=BBT150866715.1.2.3.0,bus2=BBT150866716.1.2.3.0,Phases=3,Linecode=BT803_BT803_4_3_4,Length=0.020041,Units=km
new line.TBT18779837 bus1=BBT150866716.1.2.3.0,bus2=BBT150866806.1.2.3.0,Phases=3,Linecode=BT803_BT803_4_3_4,Length=0.030931,Units=km
new line.TBT18779840 bus1=BBT150866699.1.2.3.0,bus2=BBT150866823.1.2.3.0,Phases=3,Linecode=BT803_BT803_4_3_4,Length=0.023764,Units=km
new line.TBT18779841 bus1=BBT150866823.1.2.3.0,bus2=BBT150866824.1.2.3.0,Phases=3,Linecode=BT803_BT803_4_3_4,Length=0.032133,Units=km
new line.TBT18779857 bus1=BBT150866974.1.2.3.0,bus2=BBT150866975.1.2.3.0,Phases=3,Linecode=BT518_BT518_7_3_1,Length=0.0005,Units=km
new line.TBT18779858 bus1=BBT150866587.1.2.3.0,bus2=BBT150867034.1.2.3.0,Phases=3,Linecode=BT803_BT803_4_3_4,Length=0.040798,Units=km
new line.TBT18779861 bus1=BBT150866975.1.2.3.0,bus2=BBT150867084.1.2.3.0,Phases=3,Linecode=BT803_BT803_4_3_4,Length=0.037611,Units=km
new line.TBT18779862 bus1=BBT150867084.1.2.3.0,bus2=BBT150867096.1.2.3.0,Phases=3,Linecode=BT803_BT803_4_3_4,Length=0.046187,Units=km
new line.TBT18779863 bus1=BBT150867096.1.2.3.0,bus2=BBT150867100.1.2.3.0,Phases=3,Linecode=BT803_BT803_4_3_4,Length=0.039473,Units=km
new line.TBT18779864 bus1=BBT150867100.1.2.3.0,bus2=BBT150867101.1.2.3.0,Phases=3,Linecode=BT803_BT803_4_3_4,Length=0.040391,Units=km
new line.TBT18779875 bus1=BBT150867317.1.2.3.0,bus2=BBT150867318.1.2.3.0,Phases=3,Linecode=BT518_BT518_7_3_1,Length=0.0005,Units=km
new line.TBT18779880 bus1=BBT150866975.1.2.3.0,bus2=BBT150867570.1.2.3.0,Phases=3,Linecode=BT803_BT803_4_3_4,Length=0.045677,Units=km
new line.TBT18779881 bus1=BBT150867570.1.2.3.0,bus2=BBT150867571.1.2.3.0,Phases=3,Linecode=BT803_BT803_4_3_4,Length=0.02507,Units=km
new line.TBT18779882 bus1=BBT150867571.1.2.3.0,bus2=BBT150867572.1.2.3.0,Phases=3,Linecode=BT803_BT803_4_3_4,Length=0.038469,Units=km
new line.TBT18779883 bus1=BBT150867572.1.2.3.0,bus2=BBT150867583.1.2.3.0,Phases=3,Linecode=BT803_BT803_4_3_4,Length=0.042937,Units=km
new line.TBT18779890 bus1=BBT150867318.1.2.3.0,bus2=BBT150867722.1.2.3.0,Phases=3,Linecode=BT803_BT803_4_3_4,Length=0.02599,Units=km
new line.TBT18779891 bus1=BBT150867722.1.2.3.0,bus2=BBT150867723.1.2.3.0,Phases=3,Linecode=BT803_BT803_4_3_4,Length=0.005384,Units=km
new line.TBT18779892 bus1=BBT150867723.1.2.3.0,bus2=BBT150867724.1.2.3.0,Phases=3,Linecode=BT803_BT803_4_3_4,Length=0.038895,Units=km
new line.TBT18779893 bus1=BBT150867724.1.2.3.0,bus2=BBT150867739.1.2.3.0,Phases=3,Linecode=BT803_BT803_4_3_4,Length=0.041869,Units=km
new line.TBT18779895 bus1=BBT150867723.1.2.3.0,bus2=BBT150867765.1.2.3.0,Phases=3,Linecode=BT803_BT803_4_3_4,Length=0.005384,Units=km
new line.TBT18779896 bus1=BBT150867723.1.2.3.0,bus2=BBT150867766.1.2.3.0,Phases=3,Linecode=BT803_BT803_4_3_4,Length=0.019228,Units=km
new line.TBT18779897 bus1=BBT150867570.1.2.3.0,bus2=BBT150867767.1.2.3.0,Phases=3,Linecode=BT803_BT803_4_3_4,Length=0.007613,Units=km
new line.TBT18779898 bus1=BBT150867767.1.2.3.0,bus2=BBT150867768.1.2.3.0,Phases=3,Linecode=BT803_BT803_4_3_4,Length=0.034915,Units=km
new line.TBT18779905 bus1=BBT150867318.1.2.3.0,bus2=BBT150867822.1.2.3.0,Phases=3,Linecode=BT803_BT803_4_3_4,Length=0.036235,Units=km
new line.TBT18779906 bus1=BBT150867822.1.2.3.0,bus2=BBT150867823.1.2.3.0,Phases=3,Linecode=BT803_BT803_4_3_4,Length=0.041613,Units=km
new line.TBT18779907 bus1=BBT150867766.1.2.3.0,bus2=BBT150867825.1.2.3.0,Phases=3,Linecode=BT803_BT803_4_3_4,Length=0.028625,Units=km
new line.TBT18780097 bus1=BBT150871030.1.2.3.0,bus2=BBT150871031.1.2.3.0,Phases=3,Linecode=BT518_BT518_7_3_1,Length=0.0005,Units=km
new line.TBT18780103 bus1=BBT150871031.1.2.3.0,bus2=BBT150871163.1.2.3.0,Phases=3,Linecode=BT803_BT803_4_3_4,Length=0.028781,Units=km
...